TVW131_glm/Feeder_TVW131.glm
//**This is a GridLAB-D Model (glm) file for feeder :TVW131


#set profiler=1;
#set iteration_limit=50;
#set minimum_timestep=60;
#set relax_naming_rules=1;


clock {
	 timezone PST+8PDT;
	 starttime '2019-05-07 15:53:20';
	 stoptime '2019-05-07 15:53:20';
}


module powerflow{
	 solver_method NR;
	 default_maximum_voltage_error 1e-6;
	 NR_superLU_procs 1;
	 line_capacitance true;
}


module residential;
module generators;
module tape;
//Substation interconnects 
#include "Breakers_TVW131_Closed.glm";
#include "Fuses_TVW131_Closed.glm";
#include "Loads_TVW131.glm";
#include "Node_TVW131.glm";
#include "OH_Line_Configuration_TVW131.glm";
#include "OverheadLines_TVW131.glm";
#include "Regulators_TVW131_Closed.glm";
#include "UG_Line_Configuration_TVW131.glm";
#include "UndergroundLines_TVW131.glm";


object collector {
	 name loss_OH;
	 group class=overhead_line;
	 property sum(power_losses.real);
	 file "OH_lines_losses.csv";
}


object collector {
	 name loss_UG;
	 group class=underground_line;
	 property sum(power_losses.real);
	 file "UG_lines_losses.csv";
}


object voltdump {
	 filename output_voltage.csv;
	 mode polar;
}


object currdump {
	 filename output_current.csv;
	 mode polar;
}


