TVW131_glm/OH_Line_Configuration_TVW131.glm
//**Overhead  Line configuration forTVW131:


object line_configuration {
	 name overhead_line_config_ABCN_10_10;
	 z11 0.393000+0.273000j;
	 z12 0.121000-0.030000j;
	 z13 0.121000-0.030000j;
	 z21 0.121000-0.030000j;
	 z22 0.393000+0.273000j;
	 z23 0.121000-0.030000j;
	 z31 0.121000-0.030000j;
	 z32 0.121000-0.030000j;
	 z33 0.393000+0.273000j;
	 }

object line_configuration {
	 name overhead_line_config_ABCN_34_34;
	 z11 1.772000+0.783667j;
	 z12 0.492000+0.254667j;
	 z13 0.492000+0.254667j;
	 z21 0.492000+0.254667j;
	 z22 1.772000+0.783667j;
	 z23 0.492000+0.254667j;
	 z31 0.492000+0.254667j;
	 z32 0.492000+0.254667j;
	 z33 1.772000+0.783667j;
	 }

object line_configuration {
	 name overhead_line_config_ABCN_64_64;
	 z11 0.692667+0.462000j;
	 z12 0.311667+0.042000j;
	 z13 0.311667+0.042000j;
	 z21 0.311667+0.042000j;
	 z22 0.692667+0.462000j;
	 z23 0.311667+0.042000j;
	 z31 0.311667+0.042000j;
	 z32 0.311667+0.042000j;
	 z33 0.692667+0.462000j;
	 }

object line_configuration {
	 name overhead_line_config_ABCN_86_86;
	 z11 0.311333+1.160667j;
	 z12 0.179333+0.505667j;
	 z13 0.179333+0.505667j;
	 z21 0.179333+0.505667j;
	 z22 0.311333+1.160667j;
	 z23 0.179333+0.505667j;
	 z31 0.179333+0.505667j;
	 z32 0.179333+0.505667j;
	 z33 0.311333+1.160667j;
	 }

