TVW131_glm/UG_Line_Configuration_TVW131.glm
//**Underground Line configuration forTVW131:


object line_configuration {
	 name underground_line_config_AN_105_105;
	 z11 0.345333+0.341000j;
	 z12 0.139333-0.004000j;
	 z13 0.139333-0.004000j;
	 z21 0.139333-0.004000j;
	 z22 0.345333+0.341000j;
	 z23 0.139333-0.004000j;
	 z31 0.139333-0.004000j;
	 z32 0.139333-0.004000j;
	 z33 0.345333+0.341000j;
	 }

object line_configuration {
	 name underground_line_config_AN_10_10;
	 z11 0.393000+0.273000j;
	 z12 0.121000-0.030000j;
	 z13 0.121000-0.030000j;
	 z21 0.121000-0.030000j;
	 z22 0.393000+0.273000j;
	 z23 0.121000-0.030000j;
	 z31 0.121000-0.030000j;
	 z32 0.121000-0.030000j;
	 z33 0.393000+0.273000j;
	 }

object line_configuration {
	 name underground_line_config_AN_34_34;
	 z11 1.772000+0.783667j;
	 z12 0.492000+0.254667j;
	 z13 0.492000+0.254667j;
	 z21 0.492000+0.254667j;
	 z22 1.772000+0.783667j;
	 z23 0.492000+0.254667j;
	 z31 0.492000+0.254667j;
	 z32 0.492000+0.254667j;
	 z33 1.772000+0.783667j;
	 }

object line_configuration {
	 name underground_line_config_AN_4_4;
	 z11 1.517000+0.773000j;
	 z12 0.492000+0.257000j;
	 z13 0.492000+0.257000j;
	 z21 0.492000+0.257000j;
	 z22 1.517000+0.773000j;
	 z23 0.492000+0.257000j;
	 z31 0.492000+0.257000j;
	 z32 0.492000+0.257000j;
	 z33 1.517000+0.773000j;
	 }

object line_configuration {
	 name underground_line_config_AN_50_50;
	 z11 2.072667+0.745333j;
	 z12 0.466667+0.204333j;
	 z13 0.466667+0.204333j;
	 z21 0.466667+0.204333j;
	 z22 2.072667+0.745333j;
	 z23 0.466667+0.204333j;
	 z31 0.466667+0.204333j;
	 z32 0.466667+0.204333j;
	 z33 2.072667+0.745333j;
	 }

object line_configuration {
	 name underground_line_config_AN_64_64;
	 z11 0.692667+0.462000j;
	 z12 0.311667+0.042000j;
	 z13 0.311667+0.042000j;
	 z21 0.311667+0.042000j;
	 z22 0.692667+0.462000j;
	 z23 0.311667+0.042000j;
	 z31 0.311667+0.042000j;
	 z32 0.311667+0.042000j;
	 z33 0.692667+0.462000j;
	 }

object line_configuration {
	 name underground_line_config_AN_86_86;
	 z11 0.311333+1.160667j;
	 z12 0.179333+0.505667j;
	 z13 0.179333+0.505667j;
	 z21 0.179333+0.505667j;
	 z22 0.311333+1.160667j;
	 z23 0.179333+0.505667j;
	 z31 0.179333+0.505667j;
	 z32 0.179333+0.505667j;
	 z33 0.311333+1.160667j;
	 }

object line_configuration {
	 name underground_line_config_BN_105_105;
	 z11 0.345333+0.341000j;
	 z12 0.139333-0.004000j;
	 z13 0.139333-0.004000j;
	 z21 0.139333-0.004000j;
	 z22 0.345333+0.341000j;
	 z23 0.139333-0.004000j;
	 z31 0.139333-0.004000j;
	 z32 0.139333-0.004000j;
	 z33 0.345333+0.341000j;
	 }

object line_configuration {
	 name underground_line_config_BN_10_10;
	 z11 0.393000+0.273000j;
	 z12 0.121000-0.030000j;
	 z13 0.121000-0.030000j;
	 z21 0.121000-0.030000j;
	 z22 0.393000+0.273000j;
	 z23 0.121000-0.030000j;
	 z31 0.121000-0.030000j;
	 z32 0.121000-0.030000j;
	 z33 0.393000+0.273000j;
	 }

object line_configuration {
	 name underground_line_config_BN_34_34;
	 z11 1.772000+0.783667j;
	 z12 0.492000+0.254667j;
	 z13 0.492000+0.254667j;
	 z21 0.492000+0.254667j;
	 z22 1.772000+0.783667j;
	 z23 0.492000+0.254667j;
	 z31 0.492000+0.254667j;
	 z32 0.492000+0.254667j;
	 z33 1.772000+0.783667j;
	 }

object line_configuration {
	 name underground_line_config_BN_4_4;
	 z11 1.517000+0.773000j;
	 z12 0.492000+0.257000j;
	 z13 0.492000+0.257000j;
	 z21 0.492000+0.257000j;
	 z22 1.517000+0.773000j;
	 z23 0.492000+0.257000j;
	 z31 0.492000+0.257000j;
	 z32 0.492000+0.257000j;
	 z33 1.517000+0.773000j;
	 }

object line_configuration {
	 name underground_line_config_BN_64_64;
	 z11 0.692667+0.462000j;
	 z12 0.311667+0.042000j;
	 z13 0.311667+0.042000j;
	 z21 0.311667+0.042000j;
	 z22 0.692667+0.462000j;
	 z23 0.311667+0.042000j;
	 z31 0.311667+0.042000j;
	 z32 0.311667+0.042000j;
	 z33 0.692667+0.462000j;
	 }

object line_configuration {
	 name underground_line_config_BN_86_86;
	 z11 0.311333+1.160667j;
	 z12 0.179333+0.505667j;
	 z13 0.179333+0.505667j;
	 z21 0.179333+0.505667j;
	 z22 0.311333+1.160667j;
	 z23 0.179333+0.505667j;
	 z31 0.179333+0.505667j;
	 z32 0.179333+0.505667j;
	 z33 0.311333+1.160667j;
	 }

object line_configuration {
	 name underground_line_config_CN_105_105;
	 z11 0.345333+0.341000j;
	 z12 0.139333-0.004000j;
	 z13 0.139333-0.004000j;
	 z21 0.139333-0.004000j;
	 z22 0.345333+0.341000j;
	 z23 0.139333-0.004000j;
	 z31 0.139333-0.004000j;
	 z32 0.139333-0.004000j;
	 z33 0.345333+0.341000j;
	 }

object line_configuration {
	 name underground_line_config_CN_10_10;
	 z11 0.393000+0.273000j;
	 z12 0.121000-0.030000j;
	 z13 0.121000-0.030000j;
	 z21 0.121000-0.030000j;
	 z22 0.393000+0.273000j;
	 z23 0.121000-0.030000j;
	 z31 0.121000-0.030000j;
	 z32 0.121000-0.030000j;
	 z33 0.393000+0.273000j;
	 }

object line_configuration {
	 name underground_line_config_CN_34_34;
	 z11 1.772000+0.783667j;
	 z12 0.492000+0.254667j;
	 z13 0.492000+0.254667j;
	 z21 0.492000+0.254667j;
	 z22 1.772000+0.783667j;
	 z23 0.492000+0.254667j;
	 z31 0.492000+0.254667j;
	 z32 0.492000+0.254667j;
	 z33 1.772000+0.783667j;
	 }

object line_configuration {
	 name underground_line_config_CN_4_4;
	 z11 1.517000+0.773000j;
	 z12 0.492000+0.257000j;
	 z13 0.492000+0.257000j;
	 z21 0.492000+0.257000j;
	 z22 1.517000+0.773000j;
	 z23 0.492000+0.257000j;
	 z31 0.492000+0.257000j;
	 z32 0.492000+0.257000j;
	 z33 1.517000+0.773000j;
	 }

object line_configuration {
	 name underground_line_config_CN_64_64;
	 z11 0.692667+0.462000j;
	 z12 0.311667+0.042000j;
	 z13 0.311667+0.042000j;
	 z21 0.311667+0.042000j;
	 z22 0.692667+0.462000j;
	 z23 0.311667+0.042000j;
	 z31 0.311667+0.042000j;
	 z32 0.311667+0.042000j;
	 z33 0.692667+0.462000j;
	 }

object line_configuration {
	 name underground_line_config_CN_86_86;
	 z11 0.311333+1.160667j;
	 z12 0.179333+0.505667j;
	 z13 0.179333+0.505667j;
	 z21 0.179333+0.505667j;
	 z22 0.311333+1.160667j;
	 z23 0.179333+0.505667j;
	 z31 0.179333+0.505667j;
	 z32 0.179333+0.505667j;
	 z33 0.311333+1.160667j;
	 }

