TVW131_glm/UndergroundLines_TVW131.glm
//**Underground Lines forTVW131:


object underground_line {
	 name 394-1030092-0;
	 phases AN;
	 from 391-526300;
	 to 391-676696;
	 length 73.974381;
	 configuration underground_line_config_AN_34_34;
	 } 

object underground_line {
	 name 394-1030093-0;
	 phases BN;
	 from 391-526302;
	 to 391-676695;
	 length 63.430227;
	 configuration underground_line_config_BN_34_34;
	 } 

object underground_line {
	 name 394-1030094-0;
	 phases CN;
	 from 391-526301;
	 to 391-676697;
	 length 75.264799;
	 configuration underground_line_config_CN_34_34;
	 } 

object underground_line {
	 name 394-1030138-0;
	 phases AN;
	 from 391-526300;
	 to 391-676740;
	 length 198.254613;
	 configuration underground_line_config_AN_34_34;
	 } 

object underground_line {
	 name 394-1030139-0;
	 phases BN;
	 from 391-526302;
	 to 391-676742;
	 length 198.142955;
	 configuration underground_line_config_BN_34_34;
	 } 

object underground_line {
	 name 394-1030140-0;
	 phases CN;
	 from 391-526301;
	 to 391-676741;
	 length 177.644477;
	 configuration underground_line_config_CN_34_34;
	 } 

object underground_line {
	 name 394-1030144-0;
	 phases AN;
	 from 391-676740;
	 to 391-676745;
	 length 312.544981;
	 configuration underground_line_config_AN_34_34;
	 } 

object underground_line {
	 name 394-1030145-0;
	 phases BN;
	 from 391-676742;
	 to 391-676747;
	 length 319.843699;
	 configuration underground_line_config_BN_34_34;
	 } 

object underground_line {
	 name 394-1030146-0;
	 phases CN;
	 from 391-676741;
	 to 391-676746;
	 length 324.371608;
	 configuration underground_line_config_CN_34_34;
	 } 

object underground_line {
	 name 394-1030147-0;
	 phases BN;
	 from 391-676742;
	 to 391-676744;
	 length 224.623605;
	 configuration underground_line_config_BN_34_34;
	 } 

object underground_line {
	 name 394-1030152-0;
	 phases AN;
	 from 391-676745;
	 to 391-676750;
	 length 286.053992;
	 configuration underground_line_config_AN_34_34;
	 } 

object underground_line {
	 name 394-1030154-0;
	 phases AN;
	 from 391-676750;
	 to 391-261646;
	 length 394.423037;
	 configuration underground_line_config_AN_50_50;
	 } 

object underground_line {
	 name 394-1035884-0;
	 phases AN;
	 from 391-261630;
	 to 395-911516;
	 length 17.817791;
	 configuration underground_line_config_AN_4_4;
	 } 

object underground_line {
	 name 394-1035886-0;
	 phases BN;
	 from 391-261629;
	 to 395-911517;
	 length 26.421736;
	 configuration underground_line_config_BN_4_4;
	 } 

object underground_line {
	 name 394-1035888-0;
	 phases CN;
	 from 391-261631;
	 to 395-911518;
	 length 26.446967;
	 configuration underground_line_config_CN_4_4;
	 } 

object underground_line {
	 name 394-1114013-0;
	 phases AN;
	 from 391-264885;
	 to 395-975875;
	 length 260.323687;
	 configuration underground_line_config_AN_34_34;
	 } 

object underground_line {
	 name 394-1114015-0;
	 phases BN;
	 from 391-264886;
	 to 395-975873;
	 length 264.673236;
	 configuration underground_line_config_BN_34_34;
	 } 

object underground_line {
	 name 394-1114017-0;
	 phases CN;
	 from 391-264884;
	 to 395-975870;
	 length 266.143323;
	 configuration underground_line_config_CN_34_34;
	 } 

object underground_line {
	 name 394-1520759-0;
	 phases AN;
	 from 391-952892;
	 to 395-1266119;
	 length 17.785972;
	 configuration underground_line_config_AN_34_34;
	 } 

object underground_line {
	 name 394-1520761-0;
	 phases BN;
	 from 391-952894;
	 to 395-1266121;
	 length 26.609866;
	 configuration underground_line_config_BN_34_34;
	 } 

object underground_line {
	 name 394-1520763-0;
	 phases CN;
	 from 391-952893;
	 to 395-1266123;
	 length 17.821778;
	 configuration underground_line_config_CN_34_34;
	 } 

object underground_line {
	 name 394-1727125-0;
	 phases AN;
	 from 391-526298;
	 to 391-1079290;
	 length 57.331073;
	 configuration underground_line_config_AN_34_34;
	 } 

object underground_line {
	 name 394-1753452-0;
	 phases AN;
	 from 391-677661;
	 to 391-1095639;
	 length 74.652583;
	 configuration underground_line_config_AN_34_34;
	 } 

object underground_line {
	 name 394-1753453-0;
	 phases BN;
	 from 391-677662;
	 to 391-1095641;
	 length 55.934313;
	 configuration underground_line_config_BN_34_34;
	 } 

object underground_line {
	 name 394-1753454-0;
	 phases CN;
	 from 391-677663;
	 to 391-1095640;
	 length 69.854971;
	 configuration underground_line_config_CN_34_34;
	 } 

object underground_line {
	 name 394-1760079-0;
	 phases AN;
	 from 391-952897;
	 to 391-952892;
	 length 534.994206;
	 configuration underground_line_config_AN_34_34;
	 } 

object underground_line {
	 name 394-1760081-0;
	 phases BN;
	 from 391-952896;
	 to 391-952894;
	 length 523.224801;
	 configuration underground_line_config_BN_34_34;
	 } 

object underground_line {
	 name 394-1760083-0;
	 phases CN;
	 from 391-952895;
	 to 391-952893;
	 length 517.314942;
	 configuration underground_line_config_CN_34_34;
	 } 

object underground_line {
	 name 394-1853625-0;
	 phases AN;
	 from 391-1173780;
	 to 391-1173783;
	 length 601.385634;
	 configuration underground_line_config_AN_34_34;
	 } 

object underground_line {
	 name 394-1853626-0;
	 phases BN;
	 from 391-1173782;
	 to 391-1173784;
	 length 597.909863;
	 configuration underground_line_config_BN_34_34;
	 } 

object underground_line {
	 name 394-1853627-0;
	 phases CN;
	 from 391-1173781;
	 to 391-1173785;
	 length 617.690491;
	 configuration underground_line_config_CN_34_34;
	 } 

object underground_line {
	 name 394-1853637-0;
	 phases AN;
	 from 391-1100741;
	 to 391-1102644;
	 length 285.513159;
	 configuration underground_line_config_AN_34_34;
	 } 

object underground_line {
	 name 394-1853639-0;
	 phases CN;
	 from 391-1100740;
	 to 391-1102355;
	 length 292.830453;
	 configuration underground_line_config_CN_34_34;
	 } 

object underground_line {
	 name 394-1853641-0;
	 phases BN;
	 from 391-1100742;
	 to 391-1102353;
	 length 274.963937;
	 configuration underground_line_config_BN_34_34;
	 } 

object underground_line {
	 name 394-1853643-0;
	 phases AN;
	 from 391-1173783;
	 to 391-1100741;
	 length 679.168373;
	 configuration underground_line_config_AN_34_34;
	 } 

object underground_line {
	 name 394-1853645-0;
	 phases BN;
	 from 391-1173784;
	 to 391-1100742;
	 length 693.189505;
	 configuration underground_line_config_BN_34_34;
	 } 

object underground_line {
	 name 394-1853647-0;
	 phases CN;
	 from 391-1173785;
	 to 391-1100740;
	 length 678.039133;
	 configuration underground_line_config_CN_34_34;
	 } 

object underground_line {
	 name 394-1862282-0;
	 phases AN;
	 from 391-952897;
	 to 391-1179831;
	 length 54.757070;
	 configuration underground_line_config_AN_34_34;
	 } 

object underground_line {
	 name 394-1862283-0;
	 phases BN;
	 from 391-952896;
	 to 391-1179828;
	 length 65.443723;
	 configuration underground_line_config_BN_34_34;
	 } 

object underground_line {
	 name 394-1862284-0;
	 phases CN;
	 from 391-952895;
	 to 391-1179829;
	 length 53.446674;
	 configuration underground_line_config_CN_34_34;
	 } 

object underground_line {
	 name 394-1865344-0;
	 phases AN;
	 from 391-952892;
	 to 391-1182202;
	 length 221.379613;
	 configuration underground_line_config_AN_34_34;
	 } 

object underground_line {
	 name 394-1865345-0;
	 phases BN;
	 from 391-952894;
	 to 391-1182200;
	 length 205.872434;
	 configuration underground_line_config_BN_34_34;
	 } 

object underground_line {
	 name 394-1865346-0;
	 phases CN;
	 from 391-952893;
	 to 391-1182203;
	 length 193.465156;
	 configuration underground_line_config_CN_34_34;
	 } 

object underground_line {
	 name 394-2017626-0;
	 phases CN;
	 from 391-1323830;
	 to 391-1323831;
	 length 99.623828;
	 configuration underground_line_config_CN_4_4;
	 } 

object underground_line {
	 name 394-2017629-0;
	 phases BN;
	 from 391-1323829;
	 to 391-1323832;
	 length 88.585409;
	 configuration underground_line_config_BN_4_4;
	 } 

object underground_line {
	 name 394-2017630-0;
	 phases AN;
	 from 391-1323828;
	 to 391-1323833;
	 length 83.241622;
	 configuration underground_line_config_AN_4_4;
	 } 

object underground_line {
	 name 394-2017654-0;
	 phases AN;
	 from 391-952899;
	 to 391-1323796;
	 length 425.378320;
	 configuration underground_line_config_AN_34_34;
	 } 

object underground_line {
	 name 394-2017656-0;
	 phases BN;
	 from 391-953204;
	 to 391-1323798;
...